Version 4.1
SHEET 1 1496 744
WIRE 80 32 -64 32
WIRE 192 32 80 32
WIRE -64 80 -64 32
WIRE 464 96 416 96
WIRE 576 96 544 96
WIRE 192 128 192 32
WIRE -64 208 -64 160
WIRE 416 208 416 96
WIRE 464 208 416 208
WIRE 576 208 576 96
WIRE 576 208 528 208
WIRE 784 208 752 208
WIRE 912 208 864 208
WIRE 192 352 192 304
WIRE 288 352 192 352
WIRE 416 352 416 208
WIRE 416 352 288 352
WIRE 464 352 416 352
WIRE 576 368 576 208
WIRE 576 368 528 368
WIRE 624 368 576 368
WIRE 656 368 624 368
WIRE 752 368 752 208
WIRE 752 368 736 368
WIRE 800 368 752 368
WIRE 464 384 416 384
WIRE 912 384 912 208
WIRE 912 384 864 384
WIRE 960 384 912 384
WIRE 800 400 752 400
WIRE 304 448 272 448
WIRE 416 448 416 384
WIRE 416 448 384 448
WIRE 640 448 608 448
WIRE 752 448 752 400
WIRE 752 448 720 448
WIRE -80 480 -80 416
WIRE 416 480 416 448
WIRE 752 480 752 448
WIRE 416 576 416 560
WIRE 752 576 752 560
FLAG -64 208 0
FLAG 416 576 0
FLAG 752 576 0
FLAG 496 400 0
FLAG 832 416 0
FLAG -80 560 0
FLAG -80 416 Vcc
FLAG 496 336 Vcc
FLAG 832 352 Vcc
FLAG 272 448 Vcc
FLAG 624 368 Vout
FLAG 960 384 Vout2
FLAG 608 448 Vcc
FLAG 80 32 Vbias
FLAG 288 352 signal
SYMBOL voltage -64 64 R0
WINDOW 123 0 0 Left 0
WINDOW 39 0 0 Left 0
SYMATTR InstName V1
SYMATTR Value 32
SYMBOL OpAmps\\MAX4230 496 304 R0
WINDOW 3 30 86 Left 2
SYMATTR InstName U1
SYMBOL OpAmps\\MAX4230 832 320 R0
WINDOW 3 19 82 Left 2
SYMATTR InstName U2
SYMBOL cap 528 192 R90
WINDOW 0 0 32 VBottom 2
WINDOW 3 32 32 VTop 2
SYMATTR InstName C1
SYMATTR Value 9n
SYMBOL res 400 464 R0
SYMATTR InstName R1
SYMATTR Value 10k
SYMBOL res 560 80 R90
WINDOW 0 0 56 VBottom 2
WINDOW 3 32 56 VTop 2
SYMATTR InstName R2
SYMATTR Value 150
SYMBOL res 400 432 R90
WINDOW 0 0 56 VBottom 2
WINDOW 3 32 56 VTop 2
SYMATTR InstName R3
SYMATTR Value 10k
SYMBOL res 752 352 R90
WINDOW 0 0 56 VBottom 2
WINDOW 3 32 56 VTop 2
SYMATTR InstName R4
SYMATTR Value 1k
SYMBOL res 880 192 R90
WINDOW 0 0 56 VBottom 2
WINDOW 3 32 56 VTop 2
SYMATTR InstName R5
SYMATTR Value 20k
SYMBOL res 736 432 R90
WINDOW 0 0 56 VBottom 2
WINDOW 3 32 56 VTop 2
SYMATTR InstName R6
SYMATTR Value 11k
SYMBOL res 768 576 R180
WINDOW 0 36 76 Left 2
WINDOW 3 36 40 Left 2
SYMATTR InstName R7
SYMATTR Value 10k
SYMBOL voltage -80 464 R0
SYMATTR InstName V2
SYMATTR Value 3.3
SYMBOL sipm_equivalente_controllo_corrente 192 208 R0
SYMATTR InstName X2
TEXT 104 640 Left 2 !.param N=640000 Rq=1.13*16MEG Cq=397*16f Cd=18.1*16f Cg=3.64*16n
TEXT 104 688 Left 2 !.tran 0 10u 0 10n
TEXT 104 728 Left 2 !.options method=gear
TEXT 648 -16 Left 2 ;Vout2 = -(R5/R4) Vout + ((R5+R4)/R4) * (R7/(R7+R6))*Vcc
TEXT 648 24 Left 2 ;Vout2 = -20*Vout + 10 Vcc
TEXT 648 72 Left 2 ;Vout2 ha una componente costante che non appare nei grafici di Tessaro
