Version 4.1
SHEET 1 1076 680
WIRE 304 -128 224 -128
WIRE 224 -96 224 -128
WIRE -128 -16 -192 -16
WIRE -48 -16 -128 -16
WIRE 128 -16 -48 -16
WIRE 304 -16 304 -128
WIRE 128 48 128 -16
WIRE -192 64 -192 -16
WIRE -48 64 -48 -16
WIRE 304 80 304 64
WIRE 368 80 304 80
WIRE 592 80 448 80
WIRE -192 208 -192 144
WIRE -48 208 -48 128
WIRE 400 240 400 176
WIRE 304 256 304 80
WIRE 368 256 304 256
WIRE 592 272 592 80
WIRE 592 272 432 272
WIRE 720 272 592 272
WIRE 128 288 128 224
WIRE 192 288 128 288
WIRE 368 288 192 288
WIRE 128 320 128 288
WIRE -128 336 -128 272
WIRE 128 448 128 400
WIRE 400 448 400 304
WIRE -128 464 -128 416
FLAG -192 208 0
FLAG -48 208 0
FLAG 128 448 0
FLAG 400 448 0
FLAG -128 464 0
FLAG -128 272 vcc
FLAG 400 176 vcc
FLAG 720 272 vout
FLAG 224 -96 0
FLAG 192 288 signal
FLAG -128 -16 bias
SYMBOL voltage -192 48 R0
SYMATTR InstName V1
SYMATTR Value 32
SYMBOL cap -64 64 R0
SYMATTR InstName C1
SYMATTR Value 10n
SYMBOL res 112 304 R0
SYMATTR InstName RL
SYMATTR Value 30
SYMBOL OpAmps\\MAX4230 400 208 R0
SYMATTR InstName U1
SYMBOL voltage -128 320 R0
SYMATTR InstName V2
SYMATTR Value 3.3
SYMBOL res 288 -32 R0
SYMATTR InstName R1
SYMATTR Value 1k
SYMBOL res 464 64 R90
WINDOW 0 0 56 VBottom 2
WINDOW 3 32 56 VTop 2
SYMATTR InstName R2
SYMATTR Value 150k
SYMBOL sipm_equivalente_controllo_tensione_exp 128 128 R0
SYMATTR InstName X1
TEXT -160 560 Left 2 !.param N=40000 Rq=1.13MEG Cq=397f Cd=18.1f Cg=3.64n
TEXT -160 608 Left 2 !.tran 10u
