**$ENCRYPTED_LIB
**$INTERFACE
*$

*[Disclaimre]
*  This model file is made by typical data,
*  and the manufacturing dispersions are not included.
*  Moreover, it does not guarantee all of the simulation
*  result of execution by using this.
*  This model is designed as ana aid for customers of ROHM semiconductor.
*  While it reflects reasonably close to similarity to the actual
*  device in term of performance, it is not suggested as a 
*  replacement for actual equipments evaluation.
*
**************************************************************************
* (C) Copyright 2015 ROHM Co., Ltd. All right reserved. 
**************************************************************************
*
*Released by       : ROHM Co., Ltd
*Component         : BD433M2
*Date              : 2015/2/20
*Model Type        : DC, AC, Transient
*Simulator         : PSpice
*Simulator Version : 16.6-S032
*Model Revision    : 1.00
*
****************Revision update history***********************************
*1.0 - 2015/2/20   : first release by Asuma Imamura
**************************************************************************
*
*Model Usage Notes:
*1. Temperature effects have not been modeled
*2. Stabillity depends on COUT and ESR have not been modeled
**************************************************************************
.subckt BD433M2 VCC GND VO
$CDNENCSTART
eee8c5c7a2bc4b01f045f303678664e7916da0bae22e8cb0bba041dd67c69ce448ea70148a9ac1670c8926c1ac5057c8ccfcd77bf87ca9dc6932cddfad3fd03c
61f0acdd6f1a2e9904aefd89b9a41e5f2d7d0eee2ad2cfdcf8d3be278cfcb36fcbfaff902a1ecf5579a5d9be1c2d7e6142bbe21e15fa41093ac9a67cb5069d1e
8a302e1c1e178920cbf62b4d3dcda718df30a2d2b9623bc143fe2b9debb21178710f626c2faf14a6f5e8317f5de31f2aec46491abbc727ba838dda4300971314
b0f28b3fbd1dbbde8a9a64e28c8e0f77baed8dfc54ac046943fe2b9debb21178710f626c2faf14a6f5e8317f5de31f2aec46491abbc727ba838dda4300971314
604aa0ea81d30895cbf62b4d3dcda71830c6b700173dfe65faeaa281e22d723e644126c9831a96bd2cd1a59096744969972f6e7efd3c1c48123393cb38452b63
e66fa780b10d0304af14b7c938fb7d38a007cb9872abdf1bb507f4f8571cd47e8d04435f9d1b74a3b606202a388592b0e050a73d446ef65e41c2c67879656cdf
bf1ee911780421ddf5e8317f5de31f2aec46491abbc727ba4d6c4f01ae5f2eb39f2fba9f57bc7bfced00a86a37a16cd449883ab9f2e744c62c3bac5b60ea06fe
30121bf0e4b6f880c7389f615a82d95a749d13634498f34bd3fcaf6d887a529ef9c5e642b6416357cfd44de642057e5a4ae1570c2338b87ce58182da585baac7
2834d1a2b6c382ecaf14b7c938fb7d387a82bf153f9e0d04cb11c63341f3db4f644126c9831a96bd2cd1a59096744969972f6e7efd3c1c48123393cb38452b63
9543595f77f5f9608883524e29ada6a356da7fdb82d17d95bf1ee911780421ddf5e8317f5de31f2aec46491abbc727ba4d6c4f01ae5f2eb3062d74a289ed2779
f06c95c79b4ad68b0c3e3368a1d249b59a904dac3803a92318f91f14a9052bcf1849f4a9bdd570368a0fb8b80036ebda8d219e52dae349b4b59423d10e384380
0be2b2b34a6ff069242018390615bd387558b054549fd6b9fe7d9f764e64fb2ecfd44de642057e5a4ae1570c2338b87cedb52718ce228c715c2add77d7265945
3562310fcea4af5f0302a8c30efa8edd118804eeeadf85c6c59ae85432f206f1b6e66bb64f36ddb4706b807646b803715cec6adc134a2a82c44c03ea3a33fde1
a367670a286b82a70302a8c30efa8edd20b92386d072d629898dbfccfae6a484772db5233fe06a96706b807646b80371cfd44de642057e5aa77bec63ebd692e4
644136b10815c8230302a8c30efa8edd3a234b88c244a13ec59ae85432f206f187f6fb13aa6cfb50706b807646b8037176aaffd27759e1ea110929d43a910642
d38b9398f0c6d16e0302a8c30efa8edd47b23e296dbdf35e2dc8ed9cc96ddaab24fdfd9bb2e10b071849f4a9bdd570368a0fb8b80036ebda95b50d17c9e07fe4
561ec061ed337c7d0c3e3368a1d249b5bedd2459453f5a1437f6d0376a8a7c031849f4a9bdd570368a0fb8b80036ebda8d219e52dae349b4b59423d10e384380
fb44d9db61113b3d0302a8c30efa8edd749d13634498f34b644126c9831a96bd2cd1a59096744969972f6e7efd3c1c4834413796bd43cc977713088a7a2b1900
05b5f1398a5d6f69a953edecb9e35c817fe84990e6cf532216776524e099b3b40484742d577eba1adcc7a2c67394076f3ae7e3a8edcbd2f498374b5176c10f39
301e882fc75603994961e977ee15a47f9a904dac3803a92318f91f14a9052bcf1849f4a9bdd570368a0fb8b80036ebda8d219e52dae349b4b59423d10e384380
a6831e4b1ffb7449a8e56153d7d45789512dc62c40c1e96e6f7ff02ce3797e8ca58705feaee9945b56094f3e3e415cd56ef0eeb01718e98e904e39d065de6acc
466687450c36bd060c3e3368a1d249b59a904dac3803a923d4d526e3432bceb74f429cbb3c38c5d6e0d5c99bac2360347c437c46148c7fbecbc9ed208a1aa5a6
8af2d651367c16194828b8f3f243b0b0a28f946f4c407f54d2acfd990cf84fc586eca0d13fac6e6212eeecc5172f8ed6fab6d7cda32b0dd09305167cd75a975e
9afa1f10a7f457eac7389f615a82d95af2c1cbf39a028bc162d766f77596a54b6ef0eeb01718e98ed75e060d898d74720c090f7f611cbd152792ca1189ba9658
6046a794c63a517a8a9a64e28c8e0f77da9546afc91360fe37f6d0376a8a7c031849f4a9bdd570368a0fb8b80036ebda8d219e52dae349b4b59423d10e384380
9e093befba10259c3671656ad50460bf9a904dac3803a923b383949ebd282b37498d5c08d113ad103c09e4167f20f8f947d73dbab71a1a3982d021902886a9e0
c74029358c684ec39d8b9b4a2fb0aab70829c7ad435a478def1d7357d3c4e2f3644126c9831a96bd2cd1a59096744969972f6e7efd3c1c48123393cb38452b63
e0bee0f3fadd6724a60fd3951de4fe9481d7133a0c11e552e8c173397f4e2d2624fdfd9bb2e10b071849f4a9bdd570368a0fb8b80036ebda95b50d17c9e07fe4
316c4e958281b805e5f812aeffd145372d2b00812245762018f91f14a9052bcf1849f4a9bdd570368a0fb8b80036ebda8d219e52dae349b4b59423d10e384380
d5af62e153dc1447dd82f5f65a20a23bbc27f00fd76da7940da274c1d5657c2ea76a6e8078547f29e71f71e1875841712cd1a59096744969b7711ea85158aae0


ab8815c9feeb1c54e433ed7472ee6dd3d9bfc91e3712532b1ab7a0d56d7a35d0042f0c0c78bb0debcbfaff902a1ecf5579a5d9be1c2d7e611fc029c584b0feda
47d801c6aa5a98e9cd9f9b0fe66d8ad135cbee5e7b865313479b6cb30bdc3ea16ad6acdff25f084812fa5519e953d0af321c917b0e95a04c5056d22301429ae7
8a06ea5140fe795bcc0121b5e20e20767f00dfe3d846b744e04371ed79e1a4dfee5992114e68a879b5a1fd8786b9293f706b807646b8037128f83a42f140b2cb
ab8815c9feeb1c54afad267ec3d07426334607c2929b242942841285a3383979e8ef8d7142a12eca710f626c2faf14a6f5e8317f5de31f2a805503136f343d06
ab8815c9feeb1c548cc5b1271dd8a424d9bfc91e3712532b38364fb094f41e8d042f0c0c78bb0debcbfaff902a1ecf5579a5d9be1c2d7e611fc029c584b0feda
8a06ea5140fe795bbc27f931268b4061bc197fa645ba53d344854c06b5ddf4c1c4a34e41e3f570881fb4a04efc8c1f2a706b807646b80371956711648fdaafb1
ab8815c9feeb1c5408822ac768096d31863686156b34806d54dc18fbea28c0d762d766f77596a54b6ef0eeb01718e98ed75e060d898d747208698491c60915ef
7281be91c0ad8b0bcd9f9b0fe66d8ad14f65e3ea1698d4f2ceebaf7e4120786423b782b3d6a37df112fa5519e953d0af321c917b0e95a04c5056d22301429ae7
ab8815c9feeb1c54cd9f9b0fe66d8ad1e9cf4fa9852daa0fcc492bbec62d6ccd62d766f77596a54b6ef0eeb01718e98ed75e060d898d747208698491c60915ef
ab8815c9feeb1c54cfa9e9adc7bfbce5e12fe02f7e6d549577d544c4cf819bee478a87bc5b8e6cf9cfd44de642057e5a4ae1570c2338b87ce58182da585baac7
8a06ea5140fe795bc12e63f53fc8b6c72222fed5d7768110ad3411ab68d630237f2d2cc8680152ba706b807646b80371644126c9831a96bdec5565ba6a21d012
bd289cce4a5765c5cd9f9b0fe66d8ad1ebf16ed142a3bcd7ada5316ccebd03e39a87dce6f28c1cab2cd1a59096744969972f6e7efd3c1c48123393cb38452b63
fb06986c0b50bb51cd9f9b0fe66d8ad1e9cf4fa9852daa0f8492e52ca9907137cfd44de642057e5a4ae1570c2338b87cedb52718ce228c715c2add77d7265945
05b5f1398a5d6f69ca5dce43c01608183e06a90412d839e0d4174f993fb71680bdb5fca05a8ea3832ec861626006f014650d0d7f6e3a5641d38aff4e12555a5d
fb06986c0b50bb51239bdbe658d21d00ef6331bf12eade5c8492e52ca9907137cfd44de642057e5a4ae1570c2338b87cedb52718ce228c715c2add77d7265945
f17882093084b6d055373bf3d18654df239bbb3c7a29507e12fa5519e953d0af321c917b0e95a04c5918463f01a9f0fd672875dd3e762d6d062216720aab11a2
ab8815c9feeb1c54f91203b1b0fb9060d9bfc91e3712532b1c7a0013eb1f8705478a87bc5b8e6cf9cfd44de642057e5a4ae1570c2338b87ce58182da585baac7
ab8815c9feeb1c5424bbc6703b33ce3cb1df67c0bc764b518108539e509f03650386bad7a1ea1cb524fdfd9bb2e10b071849f4a9bdd57036a3dcd04419306fb1
7281be91c0ad8b0b270d57f87185e9a9d242a280fc6efc9c2e80d696562cdb56478a87bc5b8e6cf9cfd44de642057e5a4ae1570c2338b87ce58182da585baac7
ab8815c9feeb1c543a40f0eb405719561cd884deff52cf2f6d4b1453cb1949145187f5259f83870724fdfd9bb2e10b071849f4a9bdd57036a3dcd04419306fb1
7fa3a0c4137651e4cd9f9b0fe66d8ad12222fed5d7768110e5aa21199bc05fb7e34b3b236fd2923abf1ee911780421ddf5e8317f5de31f2a805503136f343d06
4bd569f7edc90606cc0121b5e20e2076d9bfc91e3712532b1cbe505b2b51fe0dcfd44de642057e5a4ae1570c2338b87cedb52718ce228c715c2add77d7265945
05b5f1398a5d6f698db082ed4859fc16d6f540374a3e1f9755dc6273389a352ac6710ff32511f2ec12fa5519e953d0af321c917b0e95a04c5056d22301429ae7

454ed7aa13dc0aa14cddd6829013f614faef472b6e3256e98492e52ca990713790068e61a34eef36cbfaff902a1ecf5579a5d9be1c2d7e611fc029c584b0feda
afc238fdacafeac77258ad621e3a8f89faef472b6e3256e98492e52ca9907137cfd44de642057e5a4ae1570c2338b87cedb52718ce228c715c2add77d7265945
05b5f1398a5d6f69a988db574fe0a0dcb2dc812c00fa6da23f29e68fc452f9d94828b8f3f243b0b0a28f946f4c407f54d2acfd990cf84fc5afd4c1e10a4855c1
0c90b3e998398756b15148f0f195fff3a39bee5fac21b2d58492e52ca9907137cfd44de642057e5a4ae1570c2338b87cedb52718ce228c715c2add77d7265945
a6831e4b1ffb74496bd90a9fef35a7801f944067f9ad875b27d2fb82be88ac2964e059585ff4d551e9d96bbce197a874335918884ecaf8c9748e037437d4a72d
0c90b3e998398756d676ae0db9c4716d72f6bb226d0e9316096c63bc1b1c5d4e18f91f14a9052bcf1849f4a9bdd570368a0fb8b80036ebda95b50d17c9e07fe4
5f7cebe53a2f6a9170fbc56c4af9f6ed3a0d6f3a8ae2f1439894c1140acaefed1849f4a9bdd570368a0fb8b80036ebda8d219e52dae349b4b59423d10e384380
1566593a8ba7e49ddc3154539177d319faef472b6e3256e9ff06bd8c0a2e76c0478a87bc5b8e6cf9cfd44de642057e5a4ae1570c2338b87ce58182da585baac7
6a108ba923ee925f39c715ff8a6225b47895342f80ffe6618492e52ca9907137f847ceecd99357c9c2356fa0b0fe3ea9f5e8317f5de31f2a805503136f343d06
6a108ba923ee925f6c4748d762fdf6f14b3fc06c1bf3fb4f69dd71b2b5a4100c4a7fe9701db6dcacf5e8317f5de31f2aec46491abbc727ba838dda4300971314
05b5f1398a5d6f69aa5fff87f79362bb936678e9e42ab7afbaeb6f75c7decf1912fa5519e953d0af321c917b0e95a04c5918463f01a9f0fdd77e36b67583548c

3bae770fd4d86d2d4df40b3c4228aecaf4cee25fac7f200424fa72377b251ae0af6082854c94ebf600d3e0b087c737444828b8f3f243b0b092c9d1671ee38e0f
3bae770fd4d86d2db3e4f339a528b67285e9461982f96efb6af3ec0b592e4aa0478a87bc5b8e6cf9cfd44de642057e5a4ae1570c2338b87ce58182da585baac7
8ae03dbf76960d1e706b807646b8037185e9461982f96efb6e2bbe9ba33874db3fc7b4032e6e815b710f626c2faf14a6f5e8317f5de31f2a805503136f343d06
31acd3ce1cf949034cc90ac87e2c6434142b92affc59ba51a434cb3c571aa35f4a7fe9701db6dcacf5e8317f5de31f2aec46491abbc727ba838dda4300971314
052379b7de16d5cbd29458c024e8f916dcde6e7e515c49c8500dfa5f8958a613d46a7c6da50a75cb34a4b7f00c01816d8f161f56ceb7cd51e1f0d04fd7616359
4861daf83f04e827706b807646b80371ec7f0d28f7530dc52c5578d3bd3b5ebd85ecd591c9b7f61f00d3e0b087c737444828b8f3f243b0b092c9d1671ee38e0f
79c4be5a9a968c02706b807646b803718573b38a04c329d627a678924adfdfdcb858c03e07ceaf7f644126c9831a96bd2cd1a59096744969b7711ea85158aae0
8cc98ba871746d54706b807646b8037115c008168e72d9181b4dacbfff8df5b680fcb0701df5319600d3e0b087c737444828b8f3f243b0b092c9d1671ee38e0f

992e54e4d43a1f0f7f4f0f89d3f6cc4a3e2a3a681d2b01a17e34256248dd898d747a2dff74983fb7f5e8317f5de31f2aec46491abbc727ba838dda4300971314
992e54e4d43a1f0f8a918077b5dd62fd3e2a3a681d2b01a1f6c57157062f5a992cd1a59096744969972f6e7efd3c1c4834413796bd43cc977713088a7a2b1900
992e54e4d43a1f0f7a95346ad249a149bdcde2edfed073d8db001f23bcd9e05358b58148317651d2f5e8317f5de31f2aec46491abbc727ba838dda4300971314
0697746efb67a3a3bff9bbda576fa85c4828b8f3f243b0b0a28f946f4c407f54d2acfd990cf84fc586eca0d13fac6e6212eeecc5172f8ed6a44f3d287fe9b1bb
992e54e4d43a1f0f6ae8de4340198614a2b4825ecf12e5ed8dfbf19c7dcaef5b28d19d7599730641f5e8317f5de31f2aec46491abbc727ba838dda4300971314
907b18424c62896bf54a69d04363293601e103553f5f369c12fa5519e953d0af321c917b0e95a04c5918463f01a9f0fd672875dd3e762d6d062216720aab11a2
992e54e4d43a1f0fa31377a7ac4a2e5c6c0b6bf833b56da9bac04f4ec038c149dbc223afed3356a87f4ccfc26a54989257a9b1c83b972f576fb6f66c563917d1
5abbe3d677a7de584828b8f3f243b0b0a28f946f4c407f54d2acfd990cf84fc586eca0d13fac6e6212eeecc5172f8ed6fab6d7cda32b0dd09305167cd75a975e
a8e51f68ab95904650d72c1353d5a0e0aaef8e102a1e1f71fe374b13685cce74b9cb3b37f430081f8c6987e7ced20ea87c1499d33873d890fb5d96c8b9cba82a
91d89556c75bd6f6cbfaff902a1ecf5579a5d9be1c2d7e6142bbe21e15fa410937c81d19beb28be80ad56e9fb6409e9ce7b4d7f765cd5d878ed5c1f2e71275e6

$CDNENCFINISH
.ends

