Version 4.1
SHEET 1 880 1092
WIRE -112 112 -176 112
WIRE -16 112 -112 112
WIRE 64 112 -16 112
WIRE 96 112 64 112
WIRE 336 112 288 112
WIRE 400 112 336 112
WIRE 464 112 400 112
WIRE 496 112 464 112
WIRE -16 144 -16 112
WIRE 400 144 400 112
WIRE -176 160 -176 112
WIRE 464 160 464 112
WIRE 64 224 64 112
WIRE 96 224 64 224
WIRE 336 224 336 112
WIRE 336 224 288 224
WIRE -176 320 -176 240
WIRE -16 320 -16 208
WIRE 192 320 192 272
WIRE 400 320 400 208
WIRE 464 320 464 240
WIRE 16 560 -192 560
WIRE 48 560 16 560
WIRE 368 560 336 560
WIRE 448 560 368 560
WIRE 544 560 448 560
WIRE -192 576 -192 560
WIRE 368 576 368 560
WIRE 448 576 448 560
WIRE 544 576 544 560
WIRE 16 656 16 560
WIRE 48 656 16 656
WIRE 368 656 368 640
WIRE 368 656 336 656
WIRE -192 672 -192 656
WIRE 448 672 448 640
WIRE 544 672 544 656
WIRE 192 752 192 720
FLAG 192 320 0
FLAG 400 320 0
FLAG -16 320 0
FLAG -176 320 0
FLAG 496 112 Vout
FLAG -112 112 Vin
FLAG 464 320 0
FLAG -192 672 0
FLAG 448 672 0
FLAG 544 672 0
FLAG 192 752 0
FLAG 544 560 OUT
FLAG -192 560 IN
SYMBOL PowerProducts\\ADP124-3.3 192 224 R0
SYMATTR InstName U1
SYMBOL cap -32 144 R0
SYMATTR InstName C1
SYMATTR Value 1”
SYMBOL cap 384 144 R0
SYMATTR InstName C2
SYMATTR Value 1”
SYMBOL voltage -176 144 R0
SYMATTR InstName V1
SYMATTR Value 5
SYMBOL res 448 144 R0
SYMATTR InstName R1
SYMATTR Value 1k
SYMBOL voltage -192 560 R0
SYMATTR InstName V3
SYMATTR Value 5
SYMBOL cap 432 576 R0
SYMATTR InstName C5
SYMATTR Value 10”
SYMBOL res 528 560 R0
SYMATTR InstName Rload1
SYMATTR Value 500
SYMBOL cap 352 576 R0
SYMATTR InstName C6
SYMATTR Value .01”
SYMBOL PowerProducts\\LT1761-3.3 192 608 R0
SYMATTR InstName U3
TEXT 384 736 Left 2 !.tran 1
