Version 4.1
SHEET 1 1672 1620
WIRE 64 -480 -32 -480
WIRE 160 -480 64 -480
WIRE 448 -480 416 -480
WIRE 528 -480 448 -480
WIRE 1056 -480 800 -480
WIRE 800 -464 800 -480
WIRE 160 -432 160 -480
WIRE 160 -432 112 -432
WIRE 208 -432 160 -432
WIRE 1056 -416 1056 -480
WIRE -32 -400 -32 -480
WIRE 112 -400 112 -432
WIRE 208 -400 208 -432
WIRE 800 -352 800 -384
WIRE 880 -352 800 -352
WIRE 1056 -352 944 -352
WIRE 528 -320 528 -480
WIRE 112 -288 112 -336
WIRE 160 -288 112 -288
WIRE 208 -288 208 -336
WIRE 208 -288 160 -288
WIRE -32 -256 -32 -320
WIRE 160 -256 160 -288
WIRE 800 -256 800 -352
WIRE 880 -256 800 -256
WIRE 1056 -256 1056 -352
WIRE 1056 -256 960 -256
WIRE 896 -128 896 -144
WIRE 800 -112 800 -256
WIRE 864 -112 800 -112
WIRE 1056 -96 1056 -256
WIRE 1056 -96 928 -96
WIRE 1120 -96 1056 -96
WIRE 1248 -96 1200 -96
WIRE 1392 -96 1248 -96
WIRE 1488 -96 1392 -96
WIRE 1600 -96 1488 -96
WIRE 528 -80 528 -144
WIRE 864 -80 528 -80
WIRE 1248 -64 1248 -96
WIRE 1392 -64 1392 -96
WIRE 1488 -64 1488 -96
WIRE 528 -48 528 -80
WIRE 528 80 528 32
WIRE 896 80 896 -64
WIRE 1248 80 1248 0
WIRE 1392 80 1392 16
WIRE 1488 80 1488 0
WIRE 416 832 160 832
WIRE 160 880 160 832
WIRE 688 880 640 880
WIRE 800 880 752 880
WIRE 416 928 416 832
WIRE 1056 928 1024 928
WIRE 1136 928 1120 928
WIRE 640 992 640 880
WIRE 688 992 640 992
WIRE 800 992 800 880
WIRE 800 992 768 992
WIRE 160 1008 160 960
WIRE 1024 1024 1024 928
WIRE 1040 1024 1024 1024
WIRE 1136 1024 1136 928
WIRE 1136 1024 1120 1024
WIRE 720 1136 720 1104
WIRE 416 1152 416 1104
WIRE 640 1152 640 992
WIRE 640 1152 416 1152
WIRE 688 1152 640 1152
WIRE 1088 1152 1088 1120
WIRE 800 1168 800 992
WIRE 800 1168 752 1168
WIRE 928 1168 800 1168
WIRE 1024 1168 1024 1024
WIRE 1024 1168 1008 1168
WIRE 1056 1168 1024 1168
WIRE 688 1184 640 1184
WIRE 1136 1184 1136 1024
WIRE 1136 1184 1120 1184
WIRE 1248 1184 1136 1184
WIRE 1056 1200 1008 1200
WIRE 640 1232 640 1184
WIRE 640 1232 592 1232
WIRE 720 1232 720 1200
WIRE 1008 1232 1008 1200
WIRE 1008 1232 960 1232
WIRE 1088 1248 1088 1216
WIRE 144 1280 144 1216
WIRE 640 1280 640 1232
WIRE 1008 1280 1008 1232
WIRE 144 1376 144 1360
WIRE 640 1424 640 1360
WIRE 1008 1424 1008 1360
FLAG -32 -256 0
FLAG 160 -256 0
FLAG 528 80 0
FLAG 896 80 0
FLAG 896 -144 vcc
FLAG 1056 -416 0
FLAG 1248 80 0
FLAG 1600 -96 Vout
FLAG 1488 80 0
FLAG 1392 80 0
FLAG 160 1008 0
FLAG 144 1376 0
FLAG 144 1216 Vcc
FLAG 720 1104 Vcc
FLAG 640 1424 0
FLAG 720 1232 0
FLAG 512 1232 Vcc
FLAG 1088 1120 Vcc
FLAG 1088 1248 0
FLAG 1008 1424 0
FLAG 880 1232 Vcc
FLAG 1248 1184 Vout2
FLAG 64 -480 Vbias
FLAG 448 -480 Vbias
SYMBOL voltage -32 -416 R0
WINDOW 123 0 0 Left 0
WINDOW 39 0 0 Left 0
SYMATTR InstName V1
SYMATTR Value 26
SYMBOL cap 96 -400 R0
SYMATTR InstName C1
SYMATTR Value 100n
SYMBOL res 512 -64 R0
SYMATTR InstName R1
SYMATTR Value 390
SYMBOL res 784 -480 R0
WINDOW 0 -37 41 Left 2
WINDOW 3 -38 76 Left 2
SYMATTR InstName R2
SYMATTR Value 1k
SYMBOL res 976 -272 R90
WINDOW 0 0 56 VBottom 2
WINDOW 3 32 56 VTop 2
SYMATTR InstName R3
SYMATTR Value 51k
SYMBOL sipm_equivalente_controllo_tensione_pulse 528 -240 R0
SYMATTR InstName X1
SYMBOL cap 192 -400 R0
SYMATTR InstName C2
SYMATTR Value 100n
SYMBOL cap 944 -368 R90
WINDOW 0 0 32 VBottom 2
WINDOW 3 32 32 VTop 2
SYMATTR InstName C5
SYMATTR Value 10p
SYMBOL res 1216 -112 R90
WINDOW 0 0 56 VBottom 2
WINDOW 3 32 56 VTop 2
SYMATTR InstName R4
SYMATTR Value 1k
SYMBOL cap 1232 -64 R0
SYMATTR InstName C6
SYMATTR Value 100p
SYMBOL cap 1472 -64 R0
SYMATTR InstName C7
SYMATTR Value 100p
SYMBOL res 1376 -80 R0
SYMATTR InstName R5
SYMATTR Value 1Meg
SYMBOL OpAmps\\LT1803 896 -96 R0
SYMATTR InstName U1
SYMBOL voltage 160 864 R0
WINDOW 123 0 0 Left 0
WINDOW 39 0 0 Left 0
SYMATTR InstName V3
SYMATTR Value 26
SYMBOL voltage 144 1264 R0
SYMATTR InstName V4
SYMATTR Value 3.3
SYMBOL sipm_equivalente_controllo_tensione_pulse 416 1008 R0
SYMATTR InstName X2
SYMBOL res 784 976 R90
WINDOW 0 0 56 VBottom 2
WINDOW 3 32 56 VTop 2
SYMATTR InstName R6
SYMATTR Value 4k
SYMBOL cap 752 864 R90
WINDOW 0 0 32 VBottom 2
WINDOW 3 32 32 VTop 2
SYMATTR InstName C8
SYMATTR Value 350p
SYMBOL OpAmps\\LT1803 720 1168 R0
SYMATTR InstName U2
SYMBOL res 624 1264 R0
SYMATTR InstName R7
SYMATTR Value 1k
SYMBOL res 608 1216 R90
WINDOW 0 0 56 VBottom 2
WINDOW 3 32 56 VTop 2
SYMATTR InstName R8
SYMATTR Value 1k
SYMBOL OpAmps\\LT1803 1088 1184 R0
SYMATTR InstName U3
SYMBOL res 992 1264 R0
SYMATTR InstName R9
SYMATTR Value 1k
SYMBOL res 976 1216 R90
WINDOW 0 0 56 VBottom 2
WINDOW 3 32 56 VTop 2
SYMATTR InstName R10
SYMATTR Value 1k
SYMBOL res 1024 1152 R90
WINDOW 0 0 56 VBottom 2
WINDOW 3 32 56 VTop 2
SYMATTR InstName R11
SYMATTR Value 1k
SYMBOL res 1136 1008 R90
WINDOW 0 0 56 VBottom 2
WINDOW 3 32 56 VTop 2
SYMATTR InstName R12
SYMATTR Value 1k
SYMBOL cap 1120 912 R90
WINDOW 0 0 32 VBottom 2
WINDOW 3 32 32 VTop 2
SYMATTR InstName C9
SYMATTR Value 350p
TEXT 352 280 Left 2 !.tran 40u
TEXT 352 -304 Left 2 ;SiPM 1x4
TEXT 672 1456 Left 2 !.param N=40000*16 Rq=1.13MEG Cq=397f Cd=18.1f Cg=2.95*16n
TEXT 168 1584 Left 5 ;C1 = 350p R1 = 4k C2 = 350p
TEXT 256 936 Left 2 ;SiPM 2x8
