Version 4.1
SHEET 1 1496 824
WIRE 80 32 -64 32
WIRE 192 32 80 32
WIRE -64 80 -64 32
WIRE 464 80 416 80
WIRE 576 80 528 80
WIRE 192 128 192 32
WIRE 832 128 800 128
WIRE 912 128 896 128
WIRE 416 192 416 80
WIRE 464 192 416 192
WIRE 576 192 576 80
WIRE 576 192 544 192
WIRE -64 208 -64 160
WIRE 800 224 800 128
WIRE 816 224 800 224
WIRE 912 224 912 128
WIRE 912 224 896 224
WIRE 496 336 496 304
WIRE 192 352 192 304
WIRE 288 352 192 352
WIRE 416 352 416 192
WIRE 416 352 288 352
WIRE 464 352 416 352
WIRE 864 352 864 320
WIRE 576 368 576 192
WIRE 576 368 528 368
WIRE 624 368 576 368
WIRE 704 368 624 368
WIRE 800 368 800 224
WIRE 800 368 784 368
WIRE 832 368 800 368
WIRE 464 384 416 384
WIRE 912 384 912 224
WIRE 912 384 896 384
WIRE 1024 384 912 384
WIRE 832 400 784 400
WIRE 416 432 416 384
WIRE 416 432 368 432
WIRE 496 432 496 400
WIRE 784 432 784 400
WIRE 784 432 736 432
WIRE 864 448 864 416
WIRE -80 480 -80 416
WIRE 416 480 416 432
WIRE 784 480 784 432
WIRE -80 576 -80 560
WIRE 416 624 416 560
WIRE 784 624 784 560
FLAG -64 208 0
FLAG -80 576 0
FLAG -80 416 Vcc
FLAG 496 304 Vcc
FLAG 624 368 Vout
FLAG 80 32 Vbias
FLAG 288 352 signal
FLAG 416 624 0
FLAG 496 432 0
FLAG 288 432 Vcc
FLAG 864 320 Vcc
FLAG 864 448 0
FLAG 784 624 0
FLAG 656 432 Vcc
FLAG 1024 384 Vout2
SYMBOL voltage -64 64 R0
WINDOW 123 0 0 Left 0
WINDOW 39 0 0 Left 0
SYMATTR InstName V1
SYMATTR Value 26
SYMBOL voltage -80 464 R0
SYMATTR InstName V2
SYMATTR Value 3.3
SYMBOL sipm_equivalente_controllo_tensione_pulse 192 208 R0
SYMATTR InstName X1
SYMBOL res 560 176 R90
WINDOW 0 0 56 VBottom 2
WINDOW 3 32 56 VTop 2
SYMATTR InstName R1
SYMATTR Value 4k
SYMBOL cap 528 64 R90
WINDOW 0 0 32 VBottom 2
WINDOW 3 32 32 VTop 2
SYMATTR InstName C1
SYMATTR Value 350p
SYMBOL OpAmps\\LT1803 496 368 R0
SYMATTR InstName U1
SYMBOL res 400 464 R0
SYMATTR InstName R2
SYMATTR Value 1k
SYMBOL res 384 416 R90
WINDOW 0 0 56 VBottom 2
WINDOW 3 32 56 VTop 2
SYMATTR InstName R3
SYMATTR Value 1k
SYMBOL OpAmps\\LT1803 864 384 R0
SYMATTR InstName U2
SYMBOL res 768 464 R0
SYMATTR InstName R4
SYMATTR Value 1k
SYMBOL res 752 416 R90
WINDOW 0 0 56 VBottom 2
WINDOW 3 32 56 VTop 2
SYMATTR InstName R5
SYMATTR Value 1k
SYMBOL res 800 352 R90
WINDOW 0 0 56 VBottom 2
WINDOW 3 32 56 VTop 2
SYMATTR InstName R6
SYMATTR Value 1k
SYMBOL res 912 208 R90
WINDOW 0 0 56 VBottom 2
WINDOW 3 32 56 VTop 2
SYMATTR InstName R7
SYMATTR Value 1k
SYMBOL cap 896 112 R90
WINDOW 0 0 32 VBottom 2
WINDOW 3 32 32 VTop 2
SYMATTR InstName C2
SYMATTR Value 350p
TEXT 456 688 Left 2 !.tran 15u
TEXT 448 656 Left 2 !.param N=40000*16 Rq=1.13MEG Cq=397f Cd=18.1f Cg=2.95*16n
TEXT -56 784 Left 5 ;C1 = 350p R1 = 4k C2 = 350p
TEXT 32 136 Left 2 ;SiPM 2x8
