Version 4.1
SHEET 1 1496 824
WIRE 464 -592 416 -592
WIRE 576 -592 528 -592
WIRE 192 -544 192 -640
WIRE 832 -544 800 -544
WIRE 912 -544 896 -544
WIRE 416 -480 416 -592
WIRE 464 -480 416 -480
WIRE 576 -480 576 -592
WIRE 576 -480 544 -480
WIRE 800 -448 800 -544
WIRE 816 -448 800 -448
WIRE 912 -448 912 -544
WIRE 912 -448 896 -448
WIRE 496 -336 496 -368
WIRE 192 -320 192 -368
WIRE 288 -320 192 -320
WIRE 416 -320 416 -480
WIRE 416 -320 288 -320
WIRE 464 -320 416 -320
WIRE 864 -320 864 -352
WIRE 576 -304 576 -480
WIRE 576 -304 528 -304
WIRE 624 -304 576 -304
WIRE 704 -304 624 -304
WIRE 800 -304 800 -448
WIRE 800 -304 784 -304
WIRE 832 -304 800 -304
WIRE 464 -288 416 -288
WIRE 912 -288 912 -448
WIRE 912 -288 896 -288
WIRE 1024 -288 912 -288
WIRE 832 -272 784 -272
WIRE 416 -240 416 -288
WIRE 496 -240 496 -272
WIRE 784 -240 784 -272
WIRE 864 -224 864 -256
WIRE -80 -192 -80 -256
WIRE -80 -96 -80 -112
WIRE 672 -32 672 -80
WIRE 464 80 416 80
WIRE 576 80 528 80
WIRE 672 96 672 48
WIRE 192 128 192 32
WIRE 832 128 800 128
WIRE 912 128 896 128
WIRE 416 192 416 80
WIRE 464 192 416 192
WIRE 576 192 576 80
WIRE 576 192 544 192
WIRE 800 224 800 128
WIRE 816 224 800 224
WIRE 912 224 912 128
WIRE 912 224 896 224
WIRE 496 336 496 304
WIRE 192 352 192 304
WIRE 288 352 192 352
WIRE 416 352 416 192
WIRE 416 352 288 352
WIRE 464 352 416 352
WIRE 864 352 864 320
WIRE 576 368 576 192
WIRE 576 368 528 368
WIRE 624 368 576 368
WIRE 704 368 624 368
WIRE 800 368 800 224
WIRE 800 368 784 368
WIRE 832 368 800 368
WIRE 464 384 416 384
WIRE 912 384 912 224
WIRE 912 384 896 384
WIRE 1024 384 912 384
WIRE 832 400 784 400
WIRE 416 432 416 384
WIRE 496 432 496 400
WIRE 784 432 784 400
WIRE 80 448 32 448
WIRE 864 448 864 416
WIRE 80 496 80 448
WIRE 80 640 80 576
FLAG 496 304 Vcc
FLAG 624 368 VoutB
FLAG 288 352 signalB
FLAG 80 640 0
FLAG 496 432 0
FLAG -48 448 Vcc
FLAG 864 320 Vcc
FLAG 864 448 0
FLAG 1024 384 Vout2B
FLAG -80 -96 0
FLAG -80 -256 Vcc
FLAG 496 -368 Vcc
FLAG 624 -304 VoutA
FLAG 288 -320 signalA
FLAG 496 -240 0
FLAG 864 -352 Vcc
FLAG 864 -224 0
FLAG 1024 -288 Vout2A
FLAG 80 448 VREF
FLAG 416 432 VREF
FLAG 784 432 VREF
FLAG 784 -240 VREF
FLAG 416 -240 VREF
FLAG 672 96 0
FLAG 672 -80 VBias
FLAG 192 -640 VBias
FLAG 192 32 VBias
SYMBOL sipm_equivalente_controllo_tensione_pulse 192 208 R0
SYMATTR InstName X1
SYMBOL res 560 176 R90
WINDOW 0 0 56 VBottom 2
WINDOW 3 32 56 VTop 2
SYMATTR InstName R1
SYMATTR Value 4k
SYMBOL cap 528 64 R90
WINDOW 0 0 32 VBottom 2
WINDOW 3 32 32 VTop 2
SYMATTR InstName C1
SYMATTR Value 350p
SYMBOL OpAmps\\LT1803 496 368 R0
SYMATTR InstName U1
SYMBOL res 64 480 R0
SYMATTR InstName R2
SYMATTR Value 500
SYMBOL res 48 432 R90
WINDOW 0 0 56 VBottom 2
WINDOW 3 32 56 VTop 2
SYMATTR InstName R3
SYMATTR Value 500
SYMBOL OpAmps\\LT1803 864 384 R0
SYMATTR InstName U2
SYMBOL res 800 352 R90
WINDOW 0 0 56 VBottom 2
WINDOW 3 32 56 VTop 2
SYMATTR InstName R6
SYMATTR Value 1k
SYMBOL res 912 208 R90
WINDOW 0 0 56 VBottom 2
WINDOW 3 32 56 VTop 2
SYMATTR InstName R7
SYMATTR Value 1k
SYMBOL cap 896 112 R90
WINDOW 0 0 32 VBottom 2
WINDOW 3 32 32 VTop 2
SYMATTR InstName C2
SYMATTR Value 350p
SYMBOL voltage -80 -208 R0
SYMATTR InstName V4
SYMATTR Value 3.3
SYMBOL sipm_equivalente_controllo_tensione_pulse 192 -464 R0
SYMATTR InstName X2
SYMBOL res 560 -496 R90
WINDOW 0 0 56 VBottom 2
WINDOW 3 32 56 VTop 2
SYMATTR InstName R4
SYMATTR Value 4k
SYMBOL cap 528 -608 R90
WINDOW 0 0 32 VBottom 2
WINDOW 3 32 32 VTop 2
SYMATTR InstName C3
SYMATTR Value 350p
SYMBOL OpAmps\\LT1803 496 -304 R0
SYMATTR InstName U3
SYMBOL OpAmps\\LT1803 864 -288 R0
SYMATTR InstName U4
SYMBOL res 800 -320 R90
WINDOW 0 0 56 VBottom 2
WINDOW 3 32 56 VTop 2
SYMATTR InstName R9
SYMATTR Value 1k
SYMBOL res 912 -464 R90
WINDOW 0 0 56 VBottom 2
WINDOW 3 32 56 VTop 2
SYMATTR InstName R10
SYMATTR Value 1k
SYMBOL cap 896 -560 R90
WINDOW 0 0 32 VBottom 2
WINDOW 3 32 32 VTop 2
SYMATTR InstName C4
SYMATTR Value 350p
SYMBOL voltage 672 -48 R0
WINDOW 123 0 0 Left 0
WINDOW 39 0 0 Left 0
SYMATTR InstName V2
SYMATTR Value 26
TEXT 456 688 Left 2 !.tran 15u
TEXT 448 656 Left 2 !.param N=40000*16 Rq=1.13MEG Cq=397f Cd=18.1f Cg=2.95*16n
TEXT -56 784 Left 5 ;C1 = 350p R1 = 4k C2 = 350p
TEXT 32 136 Left 2 ;SiPM 2x8
TEXT 32 -536 Left 2 ;SiPM 2x8
